# DIS package for MODFLOW-NWT generated by Flopy 3.3.6
         2       440       210       408         4         2
  0  0
CONSTANT    1.000000E+02                           #delr                          
CONSTANT    1.000000E+02                           #delc                          
INTERNAL               1     (FREE) -1 #model_top                     
   1.187730E+03   1.209810E+03   1.232880E+03   1.261260E+03   1.302240E+03   1.338260E+03   1.368100E+03   1.392330E+03   1.399200E+03   1.386920E+03   1.375320E+03   1.377210E+03   1.412740E+03   1.421020E+03   1.414790E+03   1.415100E+03   1.423250E+03   1.431500E+03   1.446400E+03   1.460490E+03   1.477000E+03   1.502140E+03   1.515240E+03   1.500230E+03   1.521500E+03   1.532980E+03   1.547360E+03   1.556330E+03   1.564300E+03   1.564790E+03   1.573760E+03   1.558090E+03   1.555480E+03   1.564520E+03   1.569610E+03   1.562610E+03   1.562950E+03   1.580560E+03   1.598750E+03   1.600810E+03   1.596950E+03   1.602970E+03   1.617580E+03   1.627190E+03   1.628730E+03   1.615400E+03   1.593800E+03   1.554300E+03   1.491780E+03   1.438090E+03   1.400580E+03   1.360780E+03   1.301980E+03   1.270380E+03   1.299650E+03   1.318040E+03   1.276250E+03   1.290210E+03   1.305890E+03   1.318720E+03   1.350340E+03   1.385260E+03   1.379150E+03   1.399980E+03   1.442010E+03   1.474480E+03   1.494050E+03   1.469080E+03   1.432480E+03   1.400950E+03   1.373650E+03   1.360300E+03   1.328670E+03   1.287990E+03   1.234120E+03   1.209250E+03   1.215360E+03   1.171200E+03   1.152250E+03   1.173020E+03   1.153810E+03   1.113990E+03   1.130850E+03   1.163490E+03   1.160610E+03   1.123640E+03   1.090930E+03   1.121830E+03   1.124910E+03   1.097250E+03   1.137890E+03   1.200190E+03   1.237610E+03   1.214740E+03   1.181830E+03   1.175060E+03   1.162660E+03   1.199790E+03   1.242130E+03   1.296160E+03   1.354550E+03   1.380370E+03   1.364470E+03   1.358710E+03   1.316960E+03   1.281940E+03   1.251840E+03   1.214510E+03   1.185070E+03   1.178520E+03   1.155900E+03   1.114740E+03   1.065860E+03   1.045170E+03   1.034550E+03   1.013550E+03   9.959300E+02   9.696100E+02   9.533600E+02   9.505700E+02   9.670500E+02   1.005020E+03   1.026990E+03   1.038690E+03   1.031590E+03   9.909600E+02   9.783600E+02   9.725700E+02   9.840700E+02   1.011550E+03   1.034640E+03   1.057820E+03   1.097490E+03   1.141000E+03   1.144970E+03   1.122450E+03   1.136890E+03   1.149130E+03   1.118540E+03   1.077140E+03   1.036550E+03   1.017590E+03   1.026910E+03   1.064190E+03   1.115820E+03   1.120870E+03   1.078210E+03   1.042890E+03   1.013420E+03   9.990300E+02   9.637800E+02   9.410800E+02   9.425400E+02   9.622400E+02   1.000960E+03   1.039910E+03   1.038630E+03   1.004240E+03   1.028390E+03   1.064390E+03   1.106320E+03   1.155080E+03   1.157820E+03   1.153530E+03   1.152120E+03   1.158150E+03   1.142350E+03   1.151380E+03   1.181730E+03   1.216860E+03   1.241260E+03   1.229980E+03   1.247860E+03   1.282050E+03   1.305480E+03   1.339910E+03   1.383280E+03   1.427510E+03   1.469970E+03   1.506090E+03   1.552760E+03   1.589890E+03   1.622600E+03   1.661330E+03   1.707240E+03   1.756090E+03   1.803870E+03   1.831700E+03   1.814520E+03   1.792530E+03   1.771840E+03   1.762170E+03   1.753560E+03   1.738570E+03   1.722500E+03   1.693890E+03   1.676200E+03   1.685120E+03   1.672420E+03   1.657270E+03   1.639660E+03   1.639420E+03   1.627140E+03   1.607830E+03   1.616990E+03   1.636640E+03   1.665810E+03   1.695760E+03   1.700600E+03   1.688720E+03
   1.187480E+03   1.209190E+03   1.235370E+03   1.267490E+03   1.300530E+03   1.336130E+03   1.369130E+03   1.395580E+03   1.418290E+03   1.406230E+03   1.397720E+03   1.387650E+03   1.410910E+03   1.439950E+03   1.432520E+03   1.432220E+03   1.446610E+03   1.447960E+03   1.466370E+03   1.485480E+03   1.491170E+03   1.511840E+03   1.540750E+03   1.538900E+03   1.550050E+03   1.566060E+03   1.589080E+03   1.592370E+03   1.603180E+03   1.600350E+03   1.598170E+03   1.570600E+03   1.569440E+03   1.585270E+03   1.586010E+03   1.568650E+03   1.564760E+03   1.579570E+03   1.597630E+03   1.605690E+03   1.604700E+03   1.603220E+03   1.611980E+03   1.614520E+03   1.602020E+03   1.581650E+03   1.569150E+03   1.536350E+03   1.482510E+03   1.433330E+03   1.384360E+03   1.339760E+03   1.307110E+03   1.259370E+03   1.269880E+03   1.289450E+03   1.254300E+03   1.266720E+03   1.270330E+03   1.289440E+03   1.331460E+03   1.340270E+03   1.355670E+03   1.391370E+03   1.428170E+03   1.453940E+03   1.473490E+03   1.479590E+03   1.449430E+03   1.410570E+03   1.366080E+03   1.330040E+03   1.299370E+03   1.261040E+03   1.245120E+03   1.253260E+03   1.221330E+03   1.187030E+03   1.142810E+03   1.146800E+03   1.138740E+03   1.104140E+03   1.097650E+03   1.114420E+03   1.121940E+03   1.097790E+03   1.084350E+03   1.117220E+03   1.108260E+03   1.082670E+03   1.133130E+03   1.183740E+03   1.193480E+03   1.175530E+03   1.140040E+03   1.131080E+03   1.161370E+03   1.213660E+03   1.258430E+03   1.306030E+03   1.360740E+03   1.400830E+03   1.384100E+03   1.336630E+03   1.287850E+03   1.245600E+03   1.216660E+03   1.188830E+03   1.146520E+03   1.146390E+03   1.133450E+03   1.100360E+03   1.062270E+03   1.023960E+03   1.002910E+03   9.923900E+02   9.802300E+02   9.630000E+02   9.516100E+02   9.458300E+02   9.508800E+02   9.736000E+02   9.887200E+02   9.984900E+02   9.985600E+02   9.749900E+02   9.630900E+02   9.724800E+02   9.909800E+02   1.015050E+03   1.050430E+03   1.089400E+03   1.122960E+03   1.126020E+03   1.115290E+03   1.087070E+03   1.097240E+03   1.120210E+03   1.097460E+03   1.063230E+03   1.029770E+03   9.956900E+02   1.012700E+03   1.057870E+03   1.097780E+03   1.089480E+03   1.065430E+03   1.021920E+03   9.959500E+02   9.771800E+02   9.523300E+02   9.391300E+02   9.578200E+02   9.840100E+02   1.009520E+03   1.014990E+03   1.000030E+03   9.975200E+02   1.034350E+03   1.086690E+03   1.121530E+03   1.121040E+03   1.120820E+03   1.114700E+03   1.109970E+03   1.121200E+03   1.119880E+03   1.137820E+03   1.150320E+03   1.174100E+03   1.189110E+03   1.204350E+03   1.243720E+03   1.292660E+03   1.341470E+03   1.369770E+03   1.393370E+03   1.433770E+03   1.491040E+03   1.533970E+03   1.566110E+03   1.592550E+03   1.624200E+03   1.661250E+03   1.710680E+03   1.763840E+03   1.809780E+03   1.821930E+03   1.799140E+03   1.776000E+03   1.761520E+03   1.732810E+03   1.715450E+03   1.704770E+03   1.690870E+03   1.688760E+03   1.664480E+03   1.649740E+03   1.643750E+03   1.627750E+03   1.612400E+03   1.618530E+03   1.621120E+03   1.600470E+03   1.601600E+03   1.626200E+03   1.664540E+03   1.683840E+03   1.678530E+03   1.664980E+03
   1.190610E+03   1.211220E+03   1.243000E+03   1.274350E+03   1.307030E+03   1.338280E+03   1.366120E+03   1.395760E+03   1.423010E+03   1.420000E+03   1.419450E+03   1.413570E+03   1.412380E+03   1.449290E+03   1.448150E+03   1.449990E+03   1.473460E+03   1.469260E+03   1.488310E+03   1.506150E+03   1.511640E+03   1.526890E+03   1.561680E+03   1.580370E+03   1.587100E+03   1.594530E+03   1.612170E+03   1.614870E+03   1.630400E+03   1.632020E+03   1.615210E+03   1.592860E+03   1.597280E+03   1.602200E+03   1.600700E+03   1.582320E+03   1.576400E+03   1.581590E+03   1.593730E+03   1.606060E+03   1.612440E+03   1.614830E+03   1.608880E+03   1.594570E+03   1.563010E+03   1.543110E+03   1.526330E+03   1.509880E+03   1.474520E+03   1.426320E+03   1.371320E+03   1.311550E+03   1.281660E+03   1.249000E+03   1.241850E+03   1.265400E+03   1.251870E+03   1.226440E+03   1.225740E+03   1.264930E+03   1.288790E+03   1.293960E+03   1.345420E+03   1.377120E+03   1.395680E+03   1.411720E+03   1.452700E+03   1.488900E+03   1.457940E+03   1.417390E+03   1.377040E+03   1.336140E+03   1.298720E+03   1.288220E+03   1.283320E+03   1.248570E+03   1.215710E+03   1.202760E+03   1.166730E+03   1.129960E+03   1.120510E+03   1.132860E+03   1.116590E+03   1.084840E+03   1.077940E+03   1.066370E+03   1.080150E+03   1.098320E+03   1.087320E+03   1.072980E+03   1.128650E+03   1.156740E+03   1.156880E+03   1.127780E+03   1.116280E+03   1.126260E+03   1.165100E+03   1.197280E+03   1.234580E+03   1.283710E+03   1.330370E+03   1.381600E+03   1.367400E+03   1.310710E+03   1.252470E+03   1.213000E+03   1.172510E+03   1.144510E+03   1.120110E+03   1.100760E+03   1.104690E+03   1.070370E+03   1.043900E+03   1.012850E+03   9.875200E+02   9.758500E+02   9.623700E+02   9.605800E+02   9.572600E+02   9.478900E+02   9.414000E+02   9.547700E+02   9.660300E+02   9.754500E+02   9.769200E+02   9.602500E+02   9.594900E+02   9.872300E+02   1.017830E+03   1.041570E+03   1.064980E+03   1.100700E+03   1.113700E+03   1.104190E+03   1.084710E+03   1.065200E+03   1.069160E+03   1.099910E+03   1.088450E+03   1.046810E+03   1.014250E+03   9.876200E+02   9.964200E+02   1.036850E+03   1.056540E+03   1.042740E+03   1.051070E+03   1.008280E+03   9.738600E+02   9.584300E+02   9.394400E+02   9.402300E+02   9.757600E+02   9.902600E+02   9.776400E+02   9.751500E+02   9.851200E+02   1.020590E+03   1.066660E+03   1.093870E+03   1.080270E+03   1.075330E+03   1.080490E+03   1.085780E+03   1.095800E+03   1.106080E+03   1.117890E+03   1.145740E+03   1.160830E+03   1.167790E+03   1.195250E+03   1.244050E+03   1.263770E+03   1.303050E+03   1.373450E+03   1.424860E+03   1.443320E+03   1.449070E+03   1.487940E+03   1.543070E+03   1.579280E+03   1.600410E+03   1.628060E+03   1.661300E+03   1.705490E+03   1.759050E+03   1.812630E+03   1.819940E+03   1.806100E+03   1.791930E+03   1.768460E+03   1.734090E+03   1.694630E+03   1.668800E+03   1.660860E+03   1.672470E+03   1.664560E+03   1.626960E+03   1.602540E+03   1.598630E+03   1.587530E+03   1.595060E+03   1.603610E+03   1.587290E+03   1.590640E+03   1.618650E+03   1.657630E+03   1.666160E+03   1.648850E+03   1.633480E+03
   1.212430E+03   1.222390E+03   1.245400E+03   1.281560E+03   1.320510E+03   1.348970E+03   1.369740E+03   1.397780E+03   1.428380E+03   1.439020E+03   1.435390E+03   1.421990E+03   1.423450E+03   1.456780E+03   1.463030E+03   1.461880E+03   1.488840E+03   1.497960E+03   1.506310E+03   1.528130E+03   1.544440E+03   1.565030E+03   1.585620E+03   1.604620E+03   1.616730E+03   1.619930E+03   1.629320E+03   1.640680E+03   1.652870E+03   1.650680E+03   1.626200E+03   1.618020E+03   1.619940E+03   1.619130E+03   1.613990E+03   1.604090E+03   1.596050E+03   1.593040E+03   1.599530E+03   1.607080E+03   1.618160E+03   1.618510E+03   1.598000E+03   1.569650E+03   1.523640E+03   1.481430E+03   1.463320E+03   1.454280E+03   1.438920E+03   1.416490E+03   1.377290E+03   1.332540E+03   1.294930E+03   1.261280E+03   1.224640E+03   1.224330E+03   1.243340E+03   1.220620E+03   1.200680E+03   1.232190E+03   1.246910E+03   1.288140E+03   1.318810E+03   1.335740E+03   1.345980E+03   1.391630E+03   1.452470E+03   1.509130E+03   1.497170E+03   1.454530E+03   1.420600E+03   1.371750E+03   1.337100E+03   1.330030E+03   1.294320E+03   1.266380E+03   1.256990E+03   1.244260E+03   1.206410E+03   1.176400E+03   1.181750E+03   1.190160E+03   1.163660E+03   1.117670E+03   1.091290E+03   1.080550E+03   1.058820E+03   1.077060E+03   1.067460E+03   1.063780E+03   1.095180E+03   1.130340E+03   1.128380E+03   1.091070E+03   1.099320E+03   1.134020E+03   1.157540E+03   1.187980E+03   1.227670E+03   1.270580E+03   1.337580E+03   1.380470E+03   1.348690E+03   1.299810E+03   1.242680E+03   1.205870E+03   1.174150E+03   1.129910E+03   1.095130E+03   1.066560E+03   1.059700E+03   1.046360E+03   1.013200E+03   1.000430E+03   9.941600E+02   9.876600E+02   9.767800E+02   9.881200E+02   9.790900E+02   9.575700E+02   9.411100E+02   9.426900E+02   9.546200E+02   9.732300E+02   9.735300E+02   9.534400E+02   9.601800E+02   9.891000E+02   1.030240E+03   1.070000E+03   1.092690E+03   1.094820E+03   1.077660E+03   1.080360E+03   1.066610E+03   1.043680E+03   1.059750E+03   1.081630E+03   1.100370E+03   1.062440E+03   1.024090E+03   9.912100E+02   9.758200E+02   9.989500E+02   1.010380E+03   9.978300E+02   1.015750E+03   9.986000E+02   9.540900E+02   9.389100E+02   9.361500E+02   9.399500E+02   9.515700E+02   9.581400E+02   9.633800E+02   9.786200E+02   1.001740E+03   1.037190E+03   1.080500E+03   1.074870E+03   1.055680E+03   1.071070E+03   1.091960E+03   1.106970E+03   1.121820E+03   1.138410E+03   1.158570E+03   1.169610E+03   1.205760E+03   1.213700E+03   1.248190E+03   1.288900E+03   1.312520E+03   1.337120E+03   1.378220E+03   1.427900E+03   1.476590E+03   1.504470E+03   1.528250E+03   1.553850E+03   1.582340E+03   1.608080E+03   1.641930E+03   1.676610E+03   1.721460E+03   1.775100E+03   1.817520E+03   1.831280E+03   1.806460E+03   1.779880E+03   1.741540E+03   1.709940E+03   1.684490E+03   1.649710E+03   1.634200E+03   1.646150E+03   1.633440E+03   1.613330E+03   1.581930E+03   1.574560E+03   1.568300E+03   1.580720E+03   1.580700E+03   1.566640E+03   1.576380E+03   1.614370E+03   1.645000E+03   1.641480E+03   1.623490E+03   1.604280E+03
   1.237880E+03   1.265540E+03   1.261130E+03   1.302060E+03   1.330360E+03   1.359090E+03   1.384640E+03   1.405090E+03   1.431740E+03   1.447060E+03   1.444560E+03   1.433110E+03   1.434510E+03   1.447890E+03   1.466810E+03   1.479050E+03   1.493710E+03   1.519050E+03   1.532120E+03   1.547200E+03   1.564000E+03   1.584110E+03   1.600630E+03   1.590790E+03   1.593560E+03   1.615710E+03   1.639640E+03   1.657530E+03   1.664640E+03   1.660790E+03   1.652300E+03   1.646030E+03   1.640180E+03   1.630800E+03   1.624810E+03   1.622470E+03   1.611930E+03   1.604810E+03   1.611020E+03   1.618060E+03   1.619830E+03   1.604590E+03   1.570090E+03   1.526320E+03   1.497650E+03   1.438770E+03   1.402110E+03   1.403480E+03   1.391660E+03   1.368290E+03   1.348210E+03   1.317930E+03   1.302150E+03   1.275230E+03   1.233910E+03   1.196370E+03   1.186240E+03   1.187170E+03   1.175460E+03   1.200400E+03   1.225780E+03   1.250040E+03   1.272090E+03   1.293370E+03   1.340020E+03   1.397750E+03   1.459290E+03   1.522810E+03   1.546150E+03   1.502050E+03   1.458200E+03   1.401680E+03   1.379560E+03   1.351820E+03   1.325130E+03   1.304160E+03   1.303220E+03   1.291910E+03   1.252560E+03   1.239400E+03   1.258520E+03   1.244560E+03   1.185950E+03   1.133500E+03   1.139780E+03   1.127550E+03   1.077560E+03   1.051740E+03   1.047430E+03   1.049310E+03   1.089450E+03   1.112600E+03   1.079640E+03   1.079120E+03   1.120870E+03   1.167380E+03   1.216550E+03   1.246570E+03   1.286960E+03   1.328090E+03   1.365600E+03   1.382270E+03   1.361500E+03   1.327680E+03   1.294780E+03   1.254140E+03   1.205070E+03   1.169080E+03   1.132940E+03   1.087040E+03   1.042110E+03   1.026050E+03   1.022530E+03   1.037260E+03   1.038510E+03   1.009600E+03   9.969000E+02   1.023650E+03   1.019490E+03   9.816400E+02   9.526000E+02   9.371900E+02   9.479900E+02   9.624700E+02   9.539600E+02   9.501000E+02   9.642100E+02   9.852700E+02   1.018740E+03   1.057130E+03   1.060980E+03   1.056390E+03   1.047970E+03   1.053990E+03   1.040800E+03   1.030340E+03   1.044500E+03   1.073820E+03   1.102390E+03   1.065020E+03   1.031940E+03   1.007200E+03   9.789000E+02   9.638400E+02   9.747500E+02   9.655200E+02   9.765800E+02   9.661400E+02   9.414500E+02   9.336300E+02   9.365600E+02   9.475900E+02   9.592500E+02   9.704800E+02   9.989900E+02   1.021180E+03   1.046330E+03   1.064180E+03   1.080410E+03   1.054050E+03   1.054200E+03   1.106430E+03   1.145680E+03   1.153370E+03   1.154960E+03   1.161120E+03   1.180800E+03   1.199650E+03   1.228370E+03   1.263480E+03   1.296340E+03   1.332490E+03   1.358800E+03   1.385230E+03   1.417980E+03   1.463650E+03   1.500240E+03   1.539050E+03   1.560540E+03   1.569120E+03   1.580470E+03   1.606750E+03   1.645300E+03   1.694750E+03   1.757130E+03   1.786480E+03   1.816420E+03   1.820010E+03   1.797870E+03   1.761840E+03   1.718810E+03   1.684870E+03   1.658300E+03   1.637020E+03   1.613710E+03   1.612660E+03   1.597040E+03   1.582270E+03   1.566040E+03   1.553550E+03   1.556920E+03   1.567020E+03   1.560000E+03   1.543720E+03   1.567690E+03   1.609570E+03   1.615700E+03   1.605580E+03   1.594420E+03   1.578600E+03
   1.282610E+03   1.311700E+03   1.287020E+03   1.334810E+03   1.358270E+03   1.379600E+03   1.405750E+03   1.426120E+03   1.441870E+03   1.453460E+03   1.459350E+03   1.455370E+03   1.455150E+03   1.456580E+03   1.466230E+03   1.491360E+03   1.509640E+03   1.533320E+03   1.541250E+03   1.532300E+03   1.534960E+03   1.550500E+03   1.560020E+03   1.548220E+03   1.560950E+03   1.584750E+03   1.618790E+03   1.654700E+03   1.653560E+03   1.660120E+03   1.657640E+03   1.647250E+03   1.625310E+03   1.620330E+03   1.626540E+03   1.626970E+03   1.622960E+03   1.621890E+03   1.621750E+03   1.624630E+03   1.613040E+03   1.581480E+03   1.545180E+03   1.488360E+03   1.449820E+03   1.417690E+03   1.361900E+03   1.348310E+03   1.348170E+03   1.323030E+03   1.295100E+03   1.291190E+03   1.274980E+03   1.278270E+03   1.249330E+03   1.218070E+03   1.179450E+03   1.150240E+03   1.173140E+03   1.182670E+03   1.189620E+03   1.221690E+03   1.263690E+03   1.312100E+03   1.355350E+03   1.403840E+03   1.463520E+03   1.530290E+03   1.576900E+03   1.536420E+03   1.487070E+03   1.443740E+03   1.422240E+03   1.390740E+03   1.368690E+03   1.348380E+03   1.354140E+03   1.338680E+03   1.294180E+03   1.300040E+03   1.287320E+03   1.236660E+03   1.201850E+03   1.199760E+03   1.207170E+03   1.162340E+03   1.110460E+03   1.077110E+03   1.049210E+03   1.035660E+03   1.064120E+03   1.071220E+03   1.061730E+03   1.115130E+03   1.160340E+03   1.200460E+03   1.244260E+03   1.286230E+03   1.324630E+03   1.356330E+03   1.355780E+03   1.336900E+03   1.348610E+03   1.354940E+03   1.324240E+03   1.284130E+03   1.237870E+03   1.184460E+03   1.132640E+03   1.083740E+03   1.064710E+03   1.071010E+03   1.082730E+03   1.096640E+03   1.070490E+03   1.019880E+03   1.025970E+03   1.063760E+03   1.058470E+03   1.018120E+03   9.747100E+02   9.403800E+02   9.352300E+02   9.418900E+02   9.409300E+02   9.612200E+02   9.808100E+02   9.998100E+02   1.022670E+03   1.033330E+03   1.022000E+03   1.025100E+03   1.021090E+03   1.027380E+03   1.012290E+03   1.036240E+03   1.066740E+03   1.079560E+03   1.120800E+03   1.114260E+03   1.076460E+03   1.035050E+03   9.969400E+02   9.574200E+02   9.508800E+02   9.488300E+02   9.434600E+02   9.343700E+02   9.315200E+02   9.347100E+02   9.555500E+02   9.940100E+02   1.006300E+03   1.017880E+03   1.034650E+03   1.066930E+03   1.081430E+03   1.085010E+03   1.072620E+03   1.041200E+03   1.055010E+03   1.104180E+03   1.149050E+03   1.152550E+03   1.126550E+03   1.141440E+03   1.155220E+03   1.183570E+03   1.214050E+03   1.243440E+03   1.274930E+03   1.328390E+03   1.373050E+03   1.407040E+03   1.448800E+03   1.481660E+03   1.524220E+03   1.552910E+03   1.563710E+03   1.566770E+03   1.587210E+03   1.614460E+03   1.649080E+03   1.700950E+03   1.778180E+03   1.789960E+03   1.787960E+03   1.783110E+03   1.778630E+03   1.761800E+03   1.733150E+03   1.698530E+03   1.663280E+03   1.629030E+03   1.603670E+03   1.580890E+03   1.565390E+03   1.561860E+03   1.549540E+03   1.539410E+03   1.543490E+03   1.551650E+03   1.536820E+03   1.523000E+03   1.562210E+03   1.581810E+03   1.570850E+03   1.562740E+03   1.556590E+03   1.551020E+03
   1.318440E+03   1.337780E+03   1.314030E+03   1.332420E+03   1.364130E+03   1.391860E+03   1.420070E+03   1.444610E+03   1.462590E+03   1.474810E+03   1.479110E+03   1.472420E+03   1.471240E+03   1.481390E+03   1.485070E+03   1.496820E+03   1.522760E+03   1.544020E+03   1.526720E+03   1.510130E+03   1.504910E+03   1.513520E+03   1.511670E+03   1.507100E+03   1.523560E+03   1.547350E+03   1.590780E+03   1.626750E+03   1.625970E+03   1.632560E+03   1.623760E+03   1.614970E+03   1.594550E+03   1.585860E+03   1.595550E+03   1.611510E+03   1.617810E+03   1.618990E+03   1.623560E+03   1.620620E+03   1.596290E+03   1.564230E+03   1.523750E+03   1.479910E+03   1.418710E+03   1.376840E+03   1.339860E+03   1.297380E+03   1.288910E+03   1.275650E+03   1.253540E+03   1.250040E+03   1.237360E+03   1.249970E+03   1.253640E+03   1.228780E+03   1.180260E+03   1.140200E+03   1.150200E+03   1.167790E+03   1.204660E+03   1.244760E+03   1.285830E+03   1.329910E+03   1.383620E+03   1.432440E+03   1.479170E+03   1.538630E+03   1.595020E+03   1.574850E+03   1.526510E+03   1.484380E+03   1.449810E+03   1.432030E+03   1.419990E+03   1.397540E+03   1.405300E+03   1.378310E+03   1.346220E+03   1.331970E+03   1.290760E+03   1.261670E+03   1.249930E+03   1.256360E+03   1.253530E+03   1.201010E+03   1.164680E+03   1.129740E+03   1.089660E+03   1.039390E+03   1.035060E+03   1.040900E+03   1.074050E+03   1.128280E+03   1.185240E+03   1.235830E+03   1.276680E+03   1.304090E+03   1.297860E+03   1.309230E+03   1.308460E+03   1.275960E+03   1.297900E+03   1.310150E+03   1.296190E+03   1.259490E+03   1.226320E+03   1.185870E+03   1.136980E+03   1.120900E+03   1.122370E+03   1.135210E+03   1.142870E+03   1.122920E+03   1.067930E+03   1.049340E+03   1.075980E+03   1.097760E+03   1.066400E+03   1.022750E+03   9.925000E+02   9.592600E+02   9.331300E+02   9.303100E+02   9.435900E+02   9.605600E+02   9.686800E+02   9.965400E+02   1.009590E+03   1.008060E+03   9.930100E+02   9.928100E+02   9.867400E+02   9.920800E+02   1.004120E+03   1.056630E+03   1.109180E+03   1.132620E+03   1.129500E+03   1.112650E+03   1.077150E+03   1.042360E+03   1.007480E+03   9.698500E+02   9.400500E+02   9.323900E+02   9.283300E+02   9.288300E+02   9.333000E+02   9.536800E+02   1.004150E+03   1.038420E+03   1.050890E+03   1.057680E+03   1.053780E+03   1.070150E+03   1.066880E+03   1.055770E+03   1.052770E+03   1.031270E+03   1.053440E+03   1.080350E+03   1.100650E+03   1.106430E+03   1.095700E+03   1.114280E+03   1.146380E+03   1.167030E+03   1.187760E+03   1.209040E+03   1.251720E+03   1.309560E+03   1.342050E+03   1.366880E+03   1.416160E+03   1.470670E+03   1.511900E+03   1.538560E+03   1.554330E+03   1.561970E+03   1.586650E+03   1.614660E+03   1.660670E+03   1.722200E+03   1.774000E+03   1.772030E+03   1.755900E+03   1.745620E+03   1.749830E+03   1.757640E+03   1.729770E+03   1.690410E+03   1.663390E+03   1.634160E+03   1.609810E+03   1.588910E+03   1.568480E+03   1.543090E+03   1.542440E+03   1.532440E+03   1.522140E+03   1.519410E+03   1.505590E+03   1.506010E+03   1.543610E+03   1.533830E+03   1.517140E+03   1.514830E+03   1.516890E+03   1.528630E+03
   1.339970E+03   1.351140E+03   1.355670E+03   1.349280E+03   1.351500E+03   1.383390E+03   1.416840E+03   1.451710E+03   1.486900E+03   1.503510E+03   1.506330E+03   1.495930E+03   1.494920E+03   1.504710E+03   1.506770E+03   1.510310E+03   1.520710E+03   1.528320E+03   1.516630E+03   1.496410E+03   1.485540E+03   1.479320E+03   1.472300E+03   1.475660E+03   1.490960E+03   1.518480E+03   1.557350E+03   1.586740E+03   1.593780E+03   1.593310E+03   1.589400E+03   1.572510E+03   1.561140E+03   1.563410E+03   1.572400E+03   1.586760E+03   1.597900E+03   1.602310E+03   1.608020E+03   1.607100E+03   1.574970E+03   1.546760E+03   1.507710E+03   1.455780E+03   1.405910E+03   1.354640E+03   1.321000E+03   1.296140E+03   1.266280E+03   1.241410E+03   1.228010E+03   1.209240E+03   1.199320E+03   1.200900E+03   1.217390E+03   1.226310E+03   1.184970E+03   1.130940E+03   1.145340E+03   1.177170E+03   1.212670E+03   1.257900E+03   1.307070E+03   1.353310E+03   1.402950E+03   1.458440E+03   1.514240E+03   1.570650E+03   1.624120E+03   1.614260E+03   1.570160E+03   1.528280E+03   1.490460E+03   1.485730E+03   1.464830E+03   1.436750E+03   1.443670E+03   1.424240E+03   1.394200E+03   1.360170E+03   1.343870E+03   1.316330E+03   1.302030E+03   1.300260E+03   1.271660E+03   1.229060E+03   1.190730E+03   1.144620E+03   1.091230E+03   1.041760E+03   1.022200E+03   1.063590E+03   1.110700E+03   1.156920E+03   1.205180E+03   1.248990E+03   1.258180E+03   1.287180E+03   1.245650E+03   1.233140E+03   1.241140E+03   1.218880E+03   1.242780E+03   1.247990E+03   1.258000E+03   1.251960E+03   1.210700E+03   1.183430E+03   1.177440E+03   1.179510E+03   1.189040E+03   1.199750E+03   1.188960E+03   1.138560E+03   1.101350E+03   1.097030E+03   1.124830E+03   1.124360E+03   1.084910E+03   1.059760E+03   1.027110E+03   9.846100E+02   9.459000E+02   9.262300E+02   9.357600E+02   9.476500E+02   9.685500E+02   1.000070E+03   9.942300E+02   9.830800E+02   9.749700E+02   9.677800E+02   9.642000E+02   9.785200E+02   1.018960E+03   1.071390E+03   1.122150E+03   1.159490E+03   1.121870E+03   1.073060E+03   1.061220E+03   1.043670E+03   1.002300E+03   9.665400E+02   9.364400E+02   9.259500E+02   9.263400E+02   9.337000E+02   9.614100E+02   9.929800E+02   1.034400E+03   1.038980E+03   1.035210E+03   1.037970E+03   1.026890E+03   1.027030E+03   1.025370E+03   1.021370E+03   1.021040E+03   1.020210E+03   1.036420E+03   1.048810E+03   1.057820E+03   1.065930E+03   1.076460E+03   1.094650E+03   1.117730E+03   1.133380E+03   1.166990E+03   1.207880E+03   1.249530E+03   1.280620E+03   1.302350E+03   1.347480E+03   1.407700E+03   1.464180E+03   1.495470E+03   1.521940E+03   1.537420E+03   1.546040E+03   1.571240E+03   1.610510E+03   1.668900E+03   1.732090E+03   1.769670E+03   1.753500E+03   1.732670E+03   1.712180E+03   1.718840E+03   1.730160E+03   1.699460E+03   1.669930E+03   1.651480E+03   1.618790E+03   1.589810E+03   1.595550E+03   1.573230E+03   1.534870E+03   1.511680E+03   1.521450E+03   1.491510E+03   1.481110E+03   1.478050E+03   1.487200E+03   1.510550E+03   1.481110E+03   1.458510E+03   1.460350E+03   1.480130E+03   1.496820E+03
   1.372450E+03   1.373840E+03   1.399210E+03   1.386930E+03   1.365560E+03   1.383000E+03   1.416030E+03   1.448990E+03   1.482970E+03   1.508510E+03   1.524180E+03   1.524450E+03   1.521740E+03   1.515670E+03   1.500870E+03   1.484280E+03   1.472840E+03   1.478520E+03   1.486540E+03   1.480650E+03   1.469930E+03   1.460720E+03   1.451770E+03   1.465060E+03   1.476830E+03   1.494760E+03   1.522090E+03   1.544090E+03   1.547870E+03   1.547390E+03   1.553440E+03   1.542730E+03   1.549260E+03   1.562080E+03   1.580350E+03   1.584740E+03   1.581270E+03   1.587130E+03   1.578820E+03   1.592250E+03   1.578540E+03   1.530290E+03   1.479120E+03   1.439450E+03   1.409500E+03   1.373140E+03   1.333230E+03   1.321010E+03   1.287130E+03   1.246290E+03   1.213810E+03   1.182030E+03   1.165840E+03   1.159530E+03   1.159930E+03   1.180510E+03   1.153580E+03   1.120910E+03   1.146020E+03   1.177720E+03   1.218030E+03   1.264210E+03   1.311610E+03   1.363450E+03   1.415270E+03   1.469750E+03   1.532460E+03   1.597150E+03   1.652720E+03   1.652310E+03   1.614280E+03   1.579500E+03   1.546410E+03   1.521160E+03   1.492050E+03   1.462040E+03   1.463140E+03   1.452170E+03   1.426230E+03   1.412480E+03   1.393530E+03   1.359850E+03   1.338180E+03   1.300650E+03   1.245840E+03   1.196420E+03   1.163450E+03   1.122950E+03   1.076060E+03   1.030780E+03   1.026750E+03   1.076570E+03   1.111350E+03   1.148010E+03   1.188690E+03   1.218690E+03   1.256800E+03   1.262130E+03   1.215280E+03   1.181430E+03   1.182210E+03   1.169580E+03   1.188040E+03   1.191070E+03   1.206090E+03   1.222590E+03   1.229050E+03   1.233300E+03   1.229950E+03   1.232400E+03   1.232100E+03   1.218060E+03   1.200620E+03   1.176370E+03   1.153310E+03   1.145120E+03   1.144540E+03   1.144070E+03   1.113580E+03   1.081220E+03   1.045680E+03   1.001370E+03   9.575400E+02   9.231700E+02   9.306500E+02   9.477000E+02   9.676100E+02   9.951300E+02   9.814600E+02   9.602600E+02   9.559200E+02   9.539700E+02   9.712900E+02   9.960300E+02   1.025910E+03   1.072700E+03   1.124380E+03   1.149350E+03   1.111730E+03   1.050500E+03   1.016670E+03   1.013320E+03   9.848300E+02   9.537000E+02   9.261900E+02   9.237700E+02   9.281700E+02   9.589400E+02   9.990800E+02   1.003680E+03   1.010730E+03   1.004310E+03   1.003170E+03   1.000870E+03   9.962400E+02   9.961600E+02   9.972200E+02   1.001790E+03   1.005060E+03   1.016730E+03   1.030360E+03   1.044560E+03   1.059680E+03   1.072780E+03   1.090040E+03   1.099750E+03   1.117070E+03   1.136430E+03   1.155360E+03   1.182310E+03   1.218440E+03   1.252460E+03   1.297290E+03   1.349790E+03   1.409190E+03   1.450670E+03   1.480890E+03   1.503110E+03   1.520090E+03   1.535420E+03   1.558240E+03   1.602120E+03   1.665460E+03   1.730080E+03   1.754830E+03   1.740080E+03   1.717970E+03   1.687870E+03   1.678970E+03   1.694550E+03   1.667870E+03   1.636320E+03   1.617100E+03   1.590150E+03   1.570550E+03   1.590110E+03   1.567610E+03   1.532410E+03   1.491230E+03   1.479920E+03   1.460570E+03   1.445380E+03   1.449300E+03   1.463760E+03   1.472950E+03   1.436350E+03   1.402000E+03   1.411250E+03   1.440090E+03   1.444590E+03